[root]
type=Root
children=system
eventq_index=0
full_system=false
sim_quantum=0
time_sync_enable=false
time_sync_period=100000000000
time_sync_spin_threshold=100000000

[system]
type=System
children=clk_domain cpu0 cpu1 cpu2 cpu3 cpu_clk_domain cpu_voltage_domain dvfs_handler icaches0 icaches1 icaches2 icaches3 l2_bus l2_cntrls0 l2_cntrls1 mem_ctrl network ruby scratchpads0 scratchpads1 scratchpads2 scratchpads3 voltage_domain
boot_osflags=a
cache_line_size=64
eventq_index=0
exit_on_work_items=false
init_param=0
kernel=
kernel_addr_check=true
kernel_extras=
load_addr_mask=18446744073709551615
load_offset=0
mem_mode=timing
mem_ranges=0:536870911:0:0:0:0
memories=system.mem_ctrl
mmap_using_noreserve=false
multi_thread=false
num_work_ids=16
readfile=
redirect_paths=
symbolfile=
thermal_components=
thermal_model=Null
work_begin_ckpt_count=0
work_begin_cpu_id_exit=-1
work_begin_exit_count=0
work_cpus_ckpt_count=0
work_end_ckpt_count=0
work_end_exit_count=0
work_item_id=-1
system_port=system.ruby.sys_port_proxy.slave[0]

[system.clk_domain]
type=SrcClockDomain
clock=1000
domain_id=-1
eventq_index=0
init_perf_level=0
voltage_domain=system.voltage_domain

[system.cpu0]
type=IOCPU
children=branchPred dtb interrupts isa itb tracer workload
branchPred=system.cpu0.branchPred
checker=Null
clk_domain=system.cpu_clk_domain
commitBufferSize=2
commitWidth=1
cpu_id=0
decodeBufferSize=2
decodeWidth=1
default_p_state=UNDEFINED
divOpLatency=10
do_checkpoint_insts=true
do_quiesce=true
do_statistics_insts=true
dtb=system.cpu0.dtb
eventq_index=0
fetchWidth=1
fpAluOpLatency=3
fpMulOpLatency=5
function_trace=false
function_trace_start=0
iewBufferSize=2
includeVector=false
intAluOpLatency=1
intMulOpLatency=3
interrupts=system.cpu0.interrupts
isa=system.cpu0.isa
issueWidth=1
itb=system.cpu0.itb
max_insts_all_threads=0
max_insts_any_thread=0
max_loads_all_threads=0
max_loads_any_thread=0
numDcachePorts=1
numIcachePorts=1
numLoadQueueEntries=2
numPhysCCRegs=0
numPhysFloatRegs=48
numPhysIntRegs=48
numPhysVecPredRegs=32
numPhysVecRegs=256
numROBEntries=8
numStoreQueueEntries=2
numThreads=1
p_state_clk_gate_bins=20
p_state_clk_gate_max=1000000000000
p_state_clk_gate_min=1000
power_gating_on_idle=false
power_model=
profile=0
progress_interval=0
pwr_gating_latency=300
renameBufferSize=2
renameWidth=1
simpoint_start_insts=
socket_id=0
switched_out=false
syscallRetryLatency=10000
system=system
tracer=system.cpu0.tracer
vectorBufferSize=2
wait_for_remote_gdb=false
workload=system.cpu0.workload
writebackWidth=1
dcache_port=system.scratchpads0.cpu_port
icache_port=system.icaches0.sequencer.slave[0]

[system.cpu0.branchPred]
type=TournamentBP
BTBEntries=4096
BTBTagSize=16
RASSize=16
choiceCtrBits=2
choicePredictorSize=8192
eventq_index=0
globalCtrBits=2
globalPredictorSize=8192
indirectGHRBits=13
indirectHashGHR=true
indirectHashTargets=true
indirectPathLength=3
indirectSets=256
indirectTagSize=16
indirectWays=2
instShiftAmt=2
localCtrBits=2
localHistoryTableSize=2048
localPredictorSize=2048
numThreads=1
useIndirect=true

[system.cpu0.dtb]
type=RiscvTLB
eventq_index=0
size=64

[system.cpu0.interrupts]
type=RiscvInterrupts
eventq_index=0

[system.cpu0.isa]
type=RiscvISA
eventq_index=0

[system.cpu0.itb]
type=RiscvTLB
eventq_index=0
size=64

[system.cpu0.tracer]
type=ExeTracer
eventq_index=0

[system.cpu0.workload]
type=Process
cmd=/home/na469/phil/gem5-mesh/programs-phil/spad/synth-diverge/synth 16 1.0 566925
cwd=/home/na469/phil/gem5-mesh/scripts-phil/eval
drivers=
egid=100
env=
errout=cerr
euid=100
eventq_index=0
executable=/home/na469/phil/gem5-mesh/programs-phil/spad/synth-diverge/synth
gid=100
input=cin
kvmInSE=false
maxStackSize=67108864
output=cout
pgid=100
pid=100
ppid=0
simpoint=0
system=system
uid=100
useArchPT=false

[system.cpu1]
type=IOCPU
children=branchPred dtb interrupts isa itb tracer
branchPred=system.cpu1.branchPred
checker=Null
clk_domain=system.cpu_clk_domain
commitBufferSize=2
commitWidth=1
cpu_id=1
decodeBufferSize=2
decodeWidth=1
default_p_state=UNDEFINED
divOpLatency=10
do_checkpoint_insts=true
do_quiesce=true
do_statistics_insts=true
dtb=system.cpu1.dtb
eventq_index=0
fetchWidth=1
fpAluOpLatency=3
fpMulOpLatency=5
function_trace=false
function_trace_start=0
iewBufferSize=2
includeVector=false
intAluOpLatency=1
intMulOpLatency=3
interrupts=system.cpu1.interrupts
isa=system.cpu1.isa
issueWidth=1
itb=system.cpu1.itb
max_insts_all_threads=0
max_insts_any_thread=0
max_loads_all_threads=0
max_loads_any_thread=0
numDcachePorts=1
numIcachePorts=1
numLoadQueueEntries=2
numPhysCCRegs=0
numPhysFloatRegs=48
numPhysIntRegs=48
numPhysVecPredRegs=32
numPhysVecRegs=256
numROBEntries=8
numStoreQueueEntries=2
numThreads=1
p_state_clk_gate_bins=20
p_state_clk_gate_max=1000000000000
p_state_clk_gate_min=1000
power_gating_on_idle=false
power_model=
profile=0
progress_interval=0
pwr_gating_latency=300
renameBufferSize=2
renameWidth=1
simpoint_start_insts=
socket_id=0
switched_out=false
syscallRetryLatency=10000
system=system
tracer=system.cpu1.tracer
vectorBufferSize=2
wait_for_remote_gdb=false
workload=system.cpu0.workload
writebackWidth=1
dcache_port=system.scratchpads1.cpu_port
icache_port=system.icaches1.sequencer.slave[0]

[system.cpu1.branchPred]
type=TournamentBP
BTBEntries=4096
BTBTagSize=16
RASSize=16
choiceCtrBits=2
choicePredictorSize=8192
eventq_index=0
globalCtrBits=2
globalPredictorSize=8192
indirectGHRBits=13
indirectHashGHR=true
indirectHashTargets=true
indirectPathLength=3
indirectSets=256
indirectTagSize=16
indirectWays=2
instShiftAmt=2
localCtrBits=2
localHistoryTableSize=2048
localPredictorSize=2048
numThreads=1
useIndirect=true

[system.cpu1.dtb]
type=RiscvTLB
eventq_index=0
size=64

[system.cpu1.interrupts]
type=RiscvInterrupts
eventq_index=0

[system.cpu1.isa]
type=RiscvISA
eventq_index=0

[system.cpu1.itb]
type=RiscvTLB
eventq_index=0
size=64

[system.cpu1.tracer]
type=ExeTracer
eventq_index=0

[system.cpu2]
type=IOCPU
children=branchPred dtb interrupts isa itb tracer
branchPred=system.cpu2.branchPred
checker=Null
clk_domain=system.cpu_clk_domain
commitBufferSize=2
commitWidth=1
cpu_id=2
decodeBufferSize=2
decodeWidth=1
default_p_state=UNDEFINED
divOpLatency=10
do_checkpoint_insts=true
do_quiesce=true
do_statistics_insts=true
dtb=system.cpu2.dtb
eventq_index=0
fetchWidth=1
fpAluOpLatency=3
fpMulOpLatency=5
function_trace=false
function_trace_start=0
iewBufferSize=2
includeVector=false
intAluOpLatency=1
intMulOpLatency=3
interrupts=system.cpu2.interrupts
isa=system.cpu2.isa
issueWidth=1
itb=system.cpu2.itb
max_insts_all_threads=0
max_insts_any_thread=0
max_loads_all_threads=0
max_loads_any_thread=0
numDcachePorts=1
numIcachePorts=1
numLoadQueueEntries=2
numPhysCCRegs=0
numPhysFloatRegs=48
numPhysIntRegs=48
numPhysVecPredRegs=32
numPhysVecRegs=256
numROBEntries=8
numStoreQueueEntries=2
numThreads=1
p_state_clk_gate_bins=20
p_state_clk_gate_max=1000000000000
p_state_clk_gate_min=1000
power_gating_on_idle=false
power_model=
profile=0
progress_interval=0
pwr_gating_latency=300
renameBufferSize=2
renameWidth=1
simpoint_start_insts=
socket_id=0
switched_out=false
syscallRetryLatency=10000
system=system
tracer=system.cpu2.tracer
vectorBufferSize=2
wait_for_remote_gdb=false
workload=system.cpu0.workload
writebackWidth=1
dcache_port=system.scratchpads2.cpu_port
icache_port=system.icaches2.sequencer.slave[0]

[system.cpu2.branchPred]
type=TournamentBP
BTBEntries=4096
BTBTagSize=16
RASSize=16
choiceCtrBits=2
choicePredictorSize=8192
eventq_index=0
globalCtrBits=2
globalPredictorSize=8192
indirectGHRBits=13
indirectHashGHR=true
indirectHashTargets=true
indirectPathLength=3
indirectSets=256
indirectTagSize=16
indirectWays=2
instShiftAmt=2
localCtrBits=2
localHistoryTableSize=2048
localPredictorSize=2048
numThreads=1
useIndirect=true

[system.cpu2.dtb]
type=RiscvTLB
eventq_index=0
size=64

[system.cpu2.interrupts]
type=RiscvInterrupts
eventq_index=0

[system.cpu2.isa]
type=RiscvISA
eventq_index=0

[system.cpu2.itb]
type=RiscvTLB
eventq_index=0
size=64

[system.cpu2.tracer]
type=ExeTracer
eventq_index=0

[system.cpu3]
type=IOCPU
children=branchPred dtb interrupts isa itb tracer
branchPred=system.cpu3.branchPred
checker=Null
clk_domain=system.cpu_clk_domain
commitBufferSize=2
commitWidth=1
cpu_id=3
decodeBufferSize=2
decodeWidth=1
default_p_state=UNDEFINED
divOpLatency=10
do_checkpoint_insts=true
do_quiesce=true
do_statistics_insts=true
dtb=system.cpu3.dtb
eventq_index=0
fetchWidth=1
fpAluOpLatency=3
fpMulOpLatency=5
function_trace=false
function_trace_start=0
iewBufferSize=2
includeVector=false
intAluOpLatency=1
intMulOpLatency=3
interrupts=system.cpu3.interrupts
isa=system.cpu3.isa
issueWidth=1
itb=system.cpu3.itb
max_insts_all_threads=0
max_insts_any_thread=0
max_loads_all_threads=0
max_loads_any_thread=0
numDcachePorts=1
numIcachePorts=1
numLoadQueueEntries=2
numPhysCCRegs=0
numPhysFloatRegs=48
numPhysIntRegs=48
numPhysVecPredRegs=32
numPhysVecRegs=256
numROBEntries=8
numStoreQueueEntries=2
numThreads=1
p_state_clk_gate_bins=20
p_state_clk_gate_max=1000000000000
p_state_clk_gate_min=1000
power_gating_on_idle=false
power_model=
profile=0
progress_interval=0
pwr_gating_latency=300
renameBufferSize=2
renameWidth=1
simpoint_start_insts=
socket_id=0
switched_out=false
syscallRetryLatency=10000
system=system
tracer=system.cpu3.tracer
vectorBufferSize=2
wait_for_remote_gdb=false
workload=system.cpu0.workload
writebackWidth=1
dcache_port=system.scratchpads3.cpu_port
icache_port=system.icaches3.sequencer.slave[0]

[system.cpu3.branchPred]
type=TournamentBP
BTBEntries=4096
BTBTagSize=16
RASSize=16
choiceCtrBits=2
choicePredictorSize=8192
eventq_index=0
globalCtrBits=2
globalPredictorSize=8192
indirectGHRBits=13
indirectHashGHR=true
indirectHashTargets=true
indirectPathLength=3
indirectSets=256
indirectTagSize=16
indirectWays=2
instShiftAmt=2
localCtrBits=2
localHistoryTableSize=2048
localPredictorSize=2048
numThreads=1
useIndirect=true

[system.cpu3.dtb]
type=RiscvTLB
eventq_index=0
size=64

[system.cpu3.interrupts]
type=RiscvInterrupts
eventq_index=0

[system.cpu3.isa]
type=RiscvISA
eventq_index=0

[system.cpu3.itb]
type=RiscvTLB
eventq_index=0
size=64

[system.cpu3.tracer]
type=ExeTracer
eventq_index=0

[system.cpu_clk_domain]
type=SrcClockDomain
clock=1000
domain_id=-1
eventq_index=0
init_perf_level=0
voltage_domain=system.cpu_voltage_domain

[system.cpu_voltage_domain]
type=VoltageDomain
eventq_index=0
voltage=1.0

[system.dvfs_handler]
type=DVFSHandler
domains=
enable=false
eventq_index=0
sys_clk_domain=system.clk_domain
transition_latency=100000000

[system.icaches0]
type=L1Cache_Controller
children=L1cache mandatoryQueue requestToNetwork responseFromNetwork sequencer
L1cache=system.icaches0.L1cache
addr_ranges=0:18446744073709551615:0:0:0:0
buffer_size=0
clk_domain=system.clk_domain
cluster_id=0
default_p_state=UNDEFINED
eventq_index=0
issue_latency=80
l2_hit_latency=18
mandatoryQueue=system.icaches0.mandatoryQueue
number_of_TBEs=256
p_state_clk_gate_bins=20
p_state_clk_gate_max=1000000000000
p_state_clk_gate_min=1000
power_model=
recycle_latency=10
requestToNetwork=system.icaches0.requestToNetwork
responseFromNetwork=system.icaches0.responseFromNetwork
ruby_system=system.ruby
sequencer=system.icaches0.sequencer
system=system
transitions_per_cycle=4
version=0

[system.icaches0.L1cache]
type=RubyCache
children=replacement_policy
assoc=2
block_size=0
dataAccessLatency=1
dataArrayBanks=1
eventq_index=0
is_icache=false
replacement_policy=system.icaches0.L1cache.replacement_policy
resourceStalls=false
ruby_system=system.ruby
size=32768
start_index_bit=6
tagAccessLatency=1
tagArrayBanks=1

[system.icaches0.L1cache.replacement_policy]
type=PseudoLRUReplacementPolicy
assoc=2
block_size=64
eventq_index=0
size=32768

[system.icaches0.mandatoryQueue]
type=MessageBuffer
buffer_size=0
eventq_index=0
ordered=true
randomization=false

[system.icaches0.requestToNetwork]
type=MessageBuffer
buffer_size=0
eventq_index=0
ordered=true
randomization=false
master=system.network.slave[8]

[system.icaches0.responseFromNetwork]
type=MessageBuffer
buffer_size=0
eventq_index=0
ordered=true
randomization=false
slave=system.network.master[8]

[system.icaches0.sequencer]
type=RubySequencer
clk_domain=system.clk_domain
coreid=99
dcache=system.icaches0.L1cache
dcache_hit_latency=1
deadlock_threshold=500000
default_p_state=UNDEFINED
eventq_index=0
garnet_standalone=false
icache=system.icaches0.L1cache
icache_hit_latency=1
is_cpu_sequencer=true
max_outstanding_requests=16
no_retry_on_stall=false
p_state_clk_gate_bins=20
p_state_clk_gate_max=1000000000000
p_state_clk_gate_min=1000
power_model=
ruby_system=system.ruby
support_data_reqs=true
support_inst_reqs=true
system=system
using_ruby_tester=false
version=0
slave=system.cpu0.icache_port

[system.icaches1]
type=L1Cache_Controller
children=L1cache mandatoryQueue requestToNetwork responseFromNetwork sequencer
L1cache=system.icaches1.L1cache
addr_ranges=0:18446744073709551615:0:0:0:0
buffer_size=0
clk_domain=system.clk_domain
cluster_id=0
default_p_state=UNDEFINED
eventq_index=0
issue_latency=80
l2_hit_latency=18
mandatoryQueue=system.icaches1.mandatoryQueue
number_of_TBEs=256
p_state_clk_gate_bins=20
p_state_clk_gate_max=1000000000000
p_state_clk_gate_min=1000
power_model=
recycle_latency=10
requestToNetwork=system.icaches1.requestToNetwork
responseFromNetwork=system.icaches1.responseFromNetwork
ruby_system=system.ruby
sequencer=system.icaches1.sequencer
system=system
transitions_per_cycle=4
version=1

[system.icaches1.L1cache]
type=RubyCache
children=replacement_policy
assoc=2
block_size=0
dataAccessLatency=1
dataArrayBanks=1
eventq_index=0
is_icache=false
replacement_policy=system.icaches1.L1cache.replacement_policy
resourceStalls=false
ruby_system=system.ruby
size=32768
start_index_bit=6
tagAccessLatency=1
tagArrayBanks=1

[system.icaches1.L1cache.replacement_policy]
type=PseudoLRUReplacementPolicy
assoc=2
block_size=64
eventq_index=0
size=32768

[system.icaches1.mandatoryQueue]
type=MessageBuffer
buffer_size=0
eventq_index=0
ordered=true
randomization=false

[system.icaches1.requestToNetwork]
type=MessageBuffer
buffer_size=0
eventq_index=0
ordered=true
randomization=false
master=system.network.slave[9]

[system.icaches1.responseFromNetwork]
type=MessageBuffer
buffer_size=0
eventq_index=0
ordered=true
randomization=false
slave=system.network.master[9]

[system.icaches1.sequencer]
type=RubySequencer
clk_domain=system.clk_domain
coreid=99
dcache=system.icaches1.L1cache
dcache_hit_latency=1
deadlock_threshold=500000
default_p_state=UNDEFINED
eventq_index=0
garnet_standalone=false
icache=system.icaches1.L1cache
icache_hit_latency=1
is_cpu_sequencer=true
max_outstanding_requests=16
no_retry_on_stall=false
p_state_clk_gate_bins=20
p_state_clk_gate_max=1000000000000
p_state_clk_gate_min=1000
power_model=
ruby_system=system.ruby
support_data_reqs=true
support_inst_reqs=true
system=system
using_ruby_tester=false
version=1
slave=system.cpu1.icache_port

[system.icaches2]
type=L1Cache_Controller
children=L1cache mandatoryQueue requestToNetwork responseFromNetwork sequencer
L1cache=system.icaches2.L1cache
addr_ranges=0:18446744073709551615:0:0:0:0
buffer_size=0
clk_domain=system.clk_domain
cluster_id=0
default_p_state=UNDEFINED
eventq_index=0
issue_latency=80
l2_hit_latency=18
mandatoryQueue=system.icaches2.mandatoryQueue
number_of_TBEs=256
p_state_clk_gate_bins=20
p_state_clk_gate_max=1000000000000
p_state_clk_gate_min=1000
power_model=
recycle_latency=10
requestToNetwork=system.icaches2.requestToNetwork
responseFromNetwork=system.icaches2.responseFromNetwork
ruby_system=system.ruby
sequencer=system.icaches2.sequencer
system=system
transitions_per_cycle=4
version=2

[system.icaches2.L1cache]
type=RubyCache
children=replacement_policy
assoc=2
block_size=0
dataAccessLatency=1
dataArrayBanks=1
eventq_index=0
is_icache=false
replacement_policy=system.icaches2.L1cache.replacement_policy
resourceStalls=false
ruby_system=system.ruby
size=32768
start_index_bit=6
tagAccessLatency=1
tagArrayBanks=1

[system.icaches2.L1cache.replacement_policy]
type=PseudoLRUReplacementPolicy
assoc=2
block_size=64
eventq_index=0
size=32768

[system.icaches2.mandatoryQueue]
type=MessageBuffer
buffer_size=0
eventq_index=0
ordered=true
randomization=false

[system.icaches2.requestToNetwork]
type=MessageBuffer
buffer_size=0
eventq_index=0
ordered=true
randomization=false
master=system.network.slave[10]

[system.icaches2.responseFromNetwork]
type=MessageBuffer
buffer_size=0
eventq_index=0
ordered=true
randomization=false
slave=system.network.master[10]

[system.icaches2.sequencer]
type=RubySequencer
clk_domain=system.clk_domain
coreid=99
dcache=system.icaches2.L1cache
dcache_hit_latency=1
deadlock_threshold=500000
default_p_state=UNDEFINED
eventq_index=0
garnet_standalone=false
icache=system.icaches2.L1cache
icache_hit_latency=1
is_cpu_sequencer=true
max_outstanding_requests=16
no_retry_on_stall=false
p_state_clk_gate_bins=20
p_state_clk_gate_max=1000000000000
p_state_clk_gate_min=1000
power_model=
ruby_system=system.ruby
support_data_reqs=true
support_inst_reqs=true
system=system
using_ruby_tester=false
version=2
slave=system.cpu2.icache_port

[system.icaches3]
type=L1Cache_Controller
children=L1cache mandatoryQueue requestToNetwork responseFromNetwork sequencer
L1cache=system.icaches3.L1cache
addr_ranges=0:18446744073709551615:0:0:0:0
buffer_size=0
clk_domain=system.clk_domain
cluster_id=0
default_p_state=UNDEFINED
eventq_index=0
issue_latency=80
l2_hit_latency=18
mandatoryQueue=system.icaches3.mandatoryQueue
number_of_TBEs=256
p_state_clk_gate_bins=20
p_state_clk_gate_max=1000000000000
p_state_clk_gate_min=1000
power_model=
recycle_latency=10
requestToNetwork=system.icaches3.requestToNetwork
responseFromNetwork=system.icaches3.responseFromNetwork
ruby_system=system.ruby
sequencer=system.icaches3.sequencer
system=system
transitions_per_cycle=4
version=3

[system.icaches3.L1cache]
type=RubyCache
children=replacement_policy
assoc=2
block_size=0
dataAccessLatency=1
dataArrayBanks=1
eventq_index=0
is_icache=false
replacement_policy=system.icaches3.L1cache.replacement_policy
resourceStalls=false
ruby_system=system.ruby
size=32768
start_index_bit=6
tagAccessLatency=1
tagArrayBanks=1

[system.icaches3.L1cache.replacement_policy]
type=PseudoLRUReplacementPolicy
assoc=2
block_size=64
eventq_index=0
size=32768

[system.icaches3.mandatoryQueue]
type=MessageBuffer
buffer_size=0
eventq_index=0
ordered=true
randomization=false

[system.icaches3.requestToNetwork]
type=MessageBuffer
buffer_size=0
eventq_index=0
ordered=true
randomization=false
master=system.network.slave[11]

[system.icaches3.responseFromNetwork]
type=MessageBuffer
buffer_size=0
eventq_index=0
ordered=true
randomization=false
slave=system.network.master[11]

[system.icaches3.sequencer]
type=RubySequencer
clk_domain=system.clk_domain
coreid=99
dcache=system.icaches3.L1cache
dcache_hit_latency=1
deadlock_threshold=500000
default_p_state=UNDEFINED
eventq_index=0
garnet_standalone=false
icache=system.icaches3.L1cache
icache_hit_latency=1
is_cpu_sequencer=true
max_outstanding_requests=16
no_retry_on_stall=false
p_state_clk_gate_bins=20
p_state_clk_gate_max=1000000000000
p_state_clk_gate_min=1000
power_model=
ruby_system=system.ruby
support_data_reqs=true
support_inst_reqs=true
system=system
using_ruby_tester=false
version=3
slave=system.cpu3.icache_port

[system.l2_bus]
type=NoncoherentXBar
clk_domain=system.clk_domain
default_p_state=UNDEFINED
eventq_index=0
forward_latency=1
frontend_latency=1
p_state_clk_gate_bins=20
p_state_clk_gate_max=1000000000000
p_state_clk_gate_min=1000
power_model=
response_latency=1
use_default_range=false
width=16
master=system.mem_ctrl.port
slave=system.l2_cntrls0.memory system.l2_cntrls1.memory

[system.l2_cntrls0]
type=L2Cache_Controller
children=cacheMemory requestToLLC responseFromLLC responseFromMemory
addr_ranges=0:18446744073709551615:0:0:0:0
buffer_size=0
cacheMemory=system.l2_cntrls0.cacheMemory
cache_resp_latency=12
clk_domain=system.clk_domain
cluster_id=0
default_p_state=UNDEFINED
eventq_index=0
number_of_TBEs=256
p_state_clk_gate_bins=20
p_state_clk_gate_max=1000000000000
p_state_clk_gate_min=1000
power_model=
recycle_latency=10
requestToLLC=system.l2_cntrls0.requestToLLC
responseFromLLC=system.l2_cntrls0.responseFromLLC
responseFromMemory=system.l2_cntrls0.responseFromMemory
ruby_system=system.ruby
system=system
to_memory_controller_latency=1
transitions_per_cycle=4
version=0
memory=system.l2_bus.slave[0]

[system.l2_cntrls0.cacheMemory]
type=RubyCache
children=replacement_policy
assoc=4
block_size=0
dataAccessLatency=1
dataArrayBanks=1
eventq_index=0
is_icache=false
replacement_policy=system.l2_cntrls0.cacheMemory.replacement_policy
resourceStalls=false
ruby_system=system.ruby
size=131072
start_index_bit=6
tagAccessLatency=1
tagArrayBanks=1

[system.l2_cntrls0.cacheMemory.replacement_policy]
type=PseudoLRUReplacementPolicy
assoc=4
block_size=64
eventq_index=0
size=131072

[system.l2_cntrls0.requestToLLC]
type=MessageBuffer
buffer_size=0
eventq_index=0
ordered=true
randomization=false
slave=system.network.master[12]

[system.l2_cntrls0.responseFromLLC]
type=MessageBuffer
buffer_size=0
eventq_index=0
ordered=true
randomization=false
master=system.network.slave[12]

[system.l2_cntrls0.responseFromMemory]
type=MessageBuffer
buffer_size=0
eventq_index=0
ordered=true
randomization=false

[system.l2_cntrls1]
type=L2Cache_Controller
children=cacheMemory requestToLLC responseFromLLC responseFromMemory
addr_ranges=0:18446744073709551615:0:0:0:0
buffer_size=0
cacheMemory=system.l2_cntrls1.cacheMemory
cache_resp_latency=12
clk_domain=system.clk_domain
cluster_id=0
default_p_state=UNDEFINED
eventq_index=0
number_of_TBEs=256
p_state_clk_gate_bins=20
p_state_clk_gate_max=1000000000000
p_state_clk_gate_min=1000
power_model=
recycle_latency=10
requestToLLC=system.l2_cntrls1.requestToLLC
responseFromLLC=system.l2_cntrls1.responseFromLLC
responseFromMemory=system.l2_cntrls1.responseFromMemory
ruby_system=system.ruby
system=system
to_memory_controller_latency=1
transitions_per_cycle=4
version=1
memory=system.l2_bus.slave[1]

[system.l2_cntrls1.cacheMemory]
type=RubyCache
children=replacement_policy
assoc=4
block_size=0
dataAccessLatency=1
dataArrayBanks=1
eventq_index=0
is_icache=false
replacement_policy=system.l2_cntrls1.cacheMemory.replacement_policy
resourceStalls=false
ruby_system=system.ruby
size=131072
start_index_bit=6
tagAccessLatency=1
tagArrayBanks=1

[system.l2_cntrls1.cacheMemory.replacement_policy]
type=PseudoLRUReplacementPolicy
assoc=4
block_size=64
eventq_index=0
size=131072

[system.l2_cntrls1.requestToLLC]
type=MessageBuffer
buffer_size=0
eventq_index=0
ordered=true
randomization=false
slave=system.network.master[13]

[system.l2_cntrls1.responseFromLLC]
type=MessageBuffer
buffer_size=0
eventq_index=0
ordered=true
randomization=false
master=system.network.slave[13]

[system.l2_cntrls1.responseFromMemory]
type=MessageBuffer
buffer_size=0
eventq_index=0
ordered=true
randomization=false

[system.mem_ctrl]
type=SimpleMemory
bandwidth=58.000000
clk_domain=system.clk_domain
conf_table_reported=true
default_p_state=UNDEFINED
eventq_index=0
in_addr_map=true
kvm_map=true
latency=60000
latency_var=0
null=false
p_state_clk_gate_bins=20
p_state_clk_gate_max=1000000000000
p_state_clk_gate_min=1000
power_model=
range=0:536870911:0:0:0:0
port=system.l2_bus.master[0]

[system.network]
type=GarnetNetwork
children=ext_links0 ext_links1 ext_links2 ext_links3 ext_links4 ext_links5 ext_links6 ext_links7 ext_links8 ext_links9 int_links00 int_links01 int_links02 int_links03 int_links04 int_links05 int_links06 int_links07 int_links08 int_links09 int_links10 int_links11 int_links12 int_links13 netifs0 netifs1 netifs2 netifs3 netifs4 netifs5 netifs6 netifs7 netifs8 netifs9 routers0 routers1 routers2 routers3 routers4 routers5
buffers_per_ctrl_vc=1
buffers_per_data_vc=4
clk_domain=system.clk_domain
control_msg_size=8
data_word_size=4
default_p_state=UNDEFINED
enable_fault_model=false
eventq_index=0
ext_links=system.network.ext_links0 system.network.ext_links1 system.network.ext_links2 system.network.ext_links3 system.network.ext_links4 system.network.ext_links5 system.network.ext_links6 system.network.ext_links7 system.network.ext_links8 system.network.ext_links9
fault_model=Null
garnet_deadlock_threshold=50000
int_links=system.network.int_links00 system.network.int_links01 system.network.int_links02 system.network.int_links03 system.network.int_links04 system.network.int_links05 system.network.int_links06 system.network.int_links07 system.network.int_links08 system.network.int_links09 system.network.int_links10 system.network.int_links11 system.network.int_links12 system.network.int_links13
netifs=system.network.netifs0 system.network.netifs1 system.network.netifs2 system.network.netifs3 system.network.netifs4 system.network.netifs5 system.network.netifs6 system.network.netifs7 system.network.netifs8 system.network.netifs9
ni_flit_size=16
num_rows=0
number_of_virtual_networks=2
p_state_clk_gate_bins=20
p_state_clk_gate_max=1000000000000
p_state_clk_gate_min=1000
power_model=
routers=system.network.routers0 system.network.routers1 system.network.routers2 system.network.routers3 system.network.routers4 system.network.routers5
routing_algorithm=0
ruby_system=system.ruby
topology=Not Specified
vcs_per_vnet=4
master=system.scratchpads0.memRespBuffer.slave system.scratchpads0.remoteReqBuffer.slave system.scratchpads1.memRespBuffer.slave system.scratchpads1.remoteReqBuffer.slave system.scratchpads2.memRespBuffer.slave system.scratchpads2.remoteReqBuffer.slave system.scratchpads3.memRespBuffer.slave system.scratchpads3.remoteReqBuffer.slave system.icaches0.responseFromNetwork.slave system.icaches1.responseFromNetwork.slave system.icaches2.responseFromNetwork.slave system.icaches3.responseFromNetwork.slave system.l2_cntrls0.requestToLLC.slave system.l2_cntrls1.requestToLLC.slave
slave=system.scratchpads0.memReqBuffer.master system.scratchpads0.remoteRespBuffer.master system.scratchpads1.memReqBuffer.master system.scratchpads1.remoteRespBuffer.master system.scratchpads2.memReqBuffer.master system.scratchpads2.remoteRespBuffer.master system.scratchpads3.memReqBuffer.master system.scratchpads3.remoteRespBuffer.master system.icaches0.requestToNetwork.master system.icaches1.requestToNetwork.master system.icaches2.requestToNetwork.master system.icaches3.requestToNetwork.master system.l2_cntrls0.responseFromLLC.master system.l2_cntrls1.responseFromLLC.master

[system.network.ext_links0]
type=GarnetExtLink
children=credit_links0 credit_links1 network_links0 network_links1
bandwidth_factor=16
credit_links=system.network.ext_links0.credit_links0 system.network.ext_links0.credit_links1
eventq_index=0
ext_node=system.icaches0
int_node=system.network.routers0
latency=1
link_id=0
network_links=system.network.ext_links0.network_links0 system.network.ext_links0.network_links1
weight=1

[system.network.ext_links0.credit_links0]
type=CreditLink
clk_domain=system.clk_domain
default_p_state=UNDEFINED
eventq_index=0
link_id=0
link_latency=1
p_state_clk_gate_bins=20
p_state_clk_gate_max=1000000000000
p_state_clk_gate_min=1000
power_model=
vcs_per_vnet=4
virt_nets=2

[system.network.ext_links0.credit_links1]
type=CreditLink
clk_domain=system.clk_domain
default_p_state=UNDEFINED
eventq_index=0
link_id=0
link_latency=1
p_state_clk_gate_bins=20
p_state_clk_gate_max=1000000000000
p_state_clk_gate_min=1000
power_model=
vcs_per_vnet=4
virt_nets=2

[system.network.ext_links0.network_links0]
type=NetworkLink
clk_domain=system.clk_domain
default_p_state=UNDEFINED
eventq_index=0
link_id=0
link_latency=1
p_state_clk_gate_bins=20
p_state_clk_gate_max=1000000000000
p_state_clk_gate_min=1000
power_model=
vcs_per_vnet=4
virt_nets=2

[system.network.ext_links0.network_links1]
type=NetworkLink
clk_domain=system.clk_domain
default_p_state=UNDEFINED
eventq_index=0
link_id=0
link_latency=1
p_state_clk_gate_bins=20
p_state_clk_gate_max=1000000000000
p_state_clk_gate_min=1000
power_model=
vcs_per_vnet=4
virt_nets=2

[system.network.ext_links1]
type=GarnetExtLink
children=credit_links0 credit_links1 network_links0 network_links1
bandwidth_factor=16
credit_links=system.network.ext_links1.credit_links0 system.network.ext_links1.credit_links1
eventq_index=0
ext_node=system.scratchpads0
int_node=system.network.routers0
latency=1
link_id=1
network_links=system.network.ext_links1.network_links0 system.network.ext_links1.network_links1
weight=1

[system.network.ext_links1.credit_links0]
type=CreditLink
clk_domain=system.clk_domain
default_p_state=UNDEFINED
eventq_index=0
link_id=1
link_latency=1
p_state_clk_gate_bins=20
p_state_clk_gate_max=1000000000000
p_state_clk_gate_min=1000
power_model=
vcs_per_vnet=4
virt_nets=2

[system.network.ext_links1.credit_links1]
type=CreditLink
clk_domain=system.clk_domain
default_p_state=UNDEFINED
eventq_index=0
link_id=1
link_latency=1
p_state_clk_gate_bins=20
p_state_clk_gate_max=1000000000000
p_state_clk_gate_min=1000
power_model=
vcs_per_vnet=4
virt_nets=2

[system.network.ext_links1.network_links0]
type=NetworkLink
clk_domain=system.clk_domain
default_p_state=UNDEFINED
eventq_index=0
link_id=1
link_latency=1
p_state_clk_gate_bins=20
p_state_clk_gate_max=1000000000000
p_state_clk_gate_min=1000
power_model=
vcs_per_vnet=4
virt_nets=2

[system.network.ext_links1.network_links1]
type=NetworkLink
clk_domain=system.clk_domain
default_p_state=UNDEFINED
eventq_index=0
link_id=1
link_latency=1
p_state_clk_gate_bins=20
p_state_clk_gate_max=1000000000000
p_state_clk_gate_min=1000
power_model=
vcs_per_vnet=4
virt_nets=2

[system.network.ext_links2]
type=GarnetExtLink
children=credit_links0 credit_links1 network_links0 network_links1
bandwidth_factor=16
credit_links=system.network.ext_links2.credit_links0 system.network.ext_links2.credit_links1
eventq_index=0
ext_node=system.icaches1
int_node=system.network.routers1
latency=1
link_id=2
network_links=system.network.ext_links2.network_links0 system.network.ext_links2.network_links1
weight=1
